MODEL 1
REMARK VINA RESULT:      -9.8      0.000      0.000
REMARK  Name = ZINC000072206568 1
REMARK  6 active torsions:
REMARK  status: ('A' for Active; 'I' for Inactive)
REMARK    1  A    between atoms: C_1  and  C_2
REMARK    2  A    between atoms: C_5  and  C_6
REMARK    3  A    between atoms: C_6  and  N_7
REMARK    4  A    between atoms: N_7  and  C_8
REMARK    5  A    between atoms: C_8  and  C_9
REMARK    6  A    between atoms: N_17  and  C_18
REMARK                            x       y       z     vdW  Elec       q    Type
REMARK                         _______ _______ _______ _____ _____    ______ ____
ROOT
ATOM      1  C   UNL     1     -17.092   2.516  61.436  0.00  0.00    +0.000 A 
ATOM      2  C   UNL     1     -16.991   3.671  62.139  0.00  0.00    +0.000 A 
ATOM      3  C   UNL     1     -16.874   4.930  61.401  0.00  0.00    +0.000 A 
ATOM      4  C   UNL     1     -16.765   6.154  62.071  0.00  0.00    +0.000 A 
ATOM      5  C   UNL     1     -16.656   7.311  61.352  0.00  0.00    +0.000 A 
ATOM      6  C   UNL     1     -16.652   7.284  59.964  0.00  0.00    +0.000 A 
ATOM      7  C   UNL     1     -16.759   6.090  59.284  0.00  0.00    +0.000 A 
ATOM      8  C   UNL     1     -16.870   4.899  59.994  0.00  0.00    +0.000 A 
ATOM      9  N   UNL     1     -16.978   3.690  59.339  0.00  0.00    +0.000 N 
ATOM     10  C   UNL     1     -16.974   3.660  57.874  0.00  0.00    +0.000 C 
ATOM     11  C   UNL     1     -17.079   2.538  60.025  0.00  0.00    +0.000 A 
ATOM     12  O   UNL     1     -17.171   1.489  59.413  0.00  0.00    +0.000 OA
ENDROOT
BRANCH   1  13
ATOM     13  C   UNL     1     -17.214   1.202  62.165  0.00  0.00    +0.000 C 
BRANCH  13  14
ATOM     14  N   UNL     1     -16.292   1.188  63.308  0.00  0.00    +0.000 NA
ATOM     15  H   UNL     1     -16.793   1.291  64.177  0.00  0.00    +0.000 HD
BRANCH  14  16
ATOM     16  C   UNL     1     -15.477  -0.035  63.312  0.00  0.00    +0.000 C 
BRANCH  16  21
ATOM     17  C   UNL     1     -19.285  -2.925  64.802  0.00  0.00    +0.000 C 
ATOM     18  C   UNL     1     -17.939  -2.443  64.326  0.00  0.00    +0.000 A 
ATOM     19  N   UNL     1     -16.905  -3.185  64.064  0.00  0.00    +0.000 NA
ATOM     20  O   UNL     1     -15.974  -2.496  63.701  0.00  0.00    +0.000 OA
ATOM     21  C   UNL     1     -16.338  -1.210  63.698  0.00  0.00    +0.000 A 
ATOM     22  N   UNL     1     -17.588  -1.166  64.090  0.00  0.00    +0.000 NA
ENDBRANCH  16  21
ENDBRANCH  14  16
ENDBRANCH  13  14
ENDBRANCH   1  13
TORSDOF 4
ENDMDL
MODEL 2
REMARK VINA RESULT:      -9.8      1.339      2.573
REMARK  Name = ZINC000072206568 1
REMARK  6 active torsions:
REMARK  status: ('A' for Active; 'I' for Inactive)
REMARK    1  A    between atoms: C_1  and  C_2
REMARK    2  A    between atoms: C_5  and  C_6
REMARK    3  A    between atoms: C_6  and  N_7
REMARK    4  A    between atoms: N_7  and  C_8
REMARK    5  A    between atoms: C_8  and  C_9
REMARK    6  A    between atoms: N_17  and  C_18
REMARK                            x       y       z     vdW  Elec       q    Type
REMARK                         _______ _______ _______ _____ _____    ______ ____
ROOT
ATOM      1  C   UNL     1     -16.961   2.682  61.729  0.00  0.00    +0.000 A 
ATOM      2  C   UNL     1     -16.943   2.239  60.447  0.00  0.00    +0.000 A 
ATOM      3  C   UNL     1     -16.914   3.226  59.366  0.00  0.00    +0.000 A 
ATOM      4  C   UNL     1     -16.895   2.830  58.025  0.00  0.00    +0.000 A 
ATOM      5  C   UNL     1     -16.869   3.777  57.040  0.00  0.00    +0.000 A 
ATOM      6  C   UNL     1     -16.860   5.128  57.358  0.00  0.00    +0.000 A 
ATOM      7  C   UNL     1     -16.878   5.541  58.673  0.00  0.00    +0.000 A 
ATOM      8  C   UNL     1     -16.905   4.595  59.693  0.00  0.00    +0.000 A 
ATOM      9  N   UNL     1     -16.923   4.980  61.017  0.00  0.00    +0.000 N 
ATOM     10  C   UNL     1     -16.914   6.407  61.354  0.00  0.00    +0.000 C 
ATOM     11  C   UNL     1     -16.957   4.066  62.002  0.00  0.00    +0.000 A 
ATOM     12  O   UNL     1     -16.973   4.444  63.161  0.00  0.00    +0.000 OA
ENDROOT
BRANCH   1  13
ATOM     13  C   UNL     1     -16.992   1.692  62.865  0.00  0.00    +0.000 C 
BRANCH  13  14
ATOM     14  N   UNL     1     -16.102   0.565  62.557  0.00  0.00    +0.000 NA
ATOM     15  H   UNL     1     -15.299   0.873  62.028  0.00  0.00    +0.000 HD
BRANCH  14  16
ATOM     16  C   UNL     1     -15.688  -0.130  63.783  0.00  0.00    +0.000 C 
BRANCH  16  21
ATOM     17  C   UNL     1     -19.431  -3.350  64.616  0.00  0.00    +0.000 C 
ATOM     18  C   UNL     1     -18.084  -2.753  64.303  0.00  0.00    +0.000 A 
ATOM     19  N   UNL     1     -16.999  -3.410  64.020  0.00  0.00    +0.000 NA
ATOM     20  O   UNL     1     -16.083  -2.640  63.816  0.00  0.00    +0.000 OA
ATOM     21  C   UNL     1     -16.511  -1.381  63.953  0.00  0.00    +0.000 A 
ATOM     22  N   UNL     1     -17.785  -1.442  64.258  0.00  0.00    +0.000 NA
ENDBRANCH  16  21
ENDBRANCH  14  16
ENDBRANCH  13  14
ENDBRANCH   1  13
TORSDOF 4
ENDMDL
MODEL 3
REMARK VINA RESULT:      -9.1      2.486      3.409
REMARK  Name = ZINC000072206568 1
REMARK  6 active torsions:
REMARK  status: ('A' for Active; 'I' for Inactive)
REMARK    1  A    between atoms: C_1  and  C_2
REMARK    2  A    between atoms: C_5  and  C_6
REMARK    3  A    between atoms: C_6  and  N_7
REMARK    4  A    between atoms: N_7  and  C_8
REMARK    5  A    between atoms: C_8  and  C_9
REMARK    6  A    between atoms: N_17  and  C_18
REMARK                            x       y       z     vdW  Elec       q    Type
REMARK                         _______ _______ _______ _____ _____    ______ ____
ROOT
ATOM      1  C   UNL     1     -17.539   2.493  61.177  0.00  0.00    +0.000 A 
ATOM      2  C   UNL     1     -17.533   2.604  59.825  0.00  0.00    +0.000 A 
ATOM      3  C   UNL     1     -17.155   3.887  59.230  0.00  0.00    +0.000 A 
ATOM      4  C   UNL     1     -17.132   4.061  57.843  0.00  0.00    +0.000 A 
ATOM      5  C   UNL     1     -16.776   5.272  57.319  0.00  0.00    +0.000 A 
ATOM      6  C   UNL     1     -16.437   6.330  58.151  0.00  0.00    +0.000 A 
ATOM      7  C   UNL     1     -16.452   6.180  59.521  0.00  0.00    +0.000 A 
ATOM      8  C   UNL     1     -16.812   4.957  60.077  0.00  0.00    +0.000 A 
ATOM      9  N   UNL     1     -16.836   4.779  61.444  0.00  0.00    +0.000 N 
ATOM     10  C   UNL     1     -16.478   5.895  62.324  0.00  0.00    +0.000 C 
ATOM     11  C   UNL     1     -17.191   3.598  61.982  0.00  0.00    +0.000 A 
ATOM     12  O   UNL     1     -17.201   3.478  63.195  0.00  0.00    +0.000 OA
ENDROOT
BRANCH   1  13
ATOM     13  C   UNL     1     -17.922   1.186  61.822  0.00  0.00    +0.000 C 
BRANCH  13  14
ATOM     14  N   UNL     1     -18.849   0.460  60.943  0.00  0.00    +0.000 NA
ATOM     15  H   UNL     1     -18.546  -0.494  60.810  0.00  0.00    +0.000 HD
BRANCH  14  16
ATOM     16  C   UNL     1     -20.220   0.507  61.469  0.00  0.00    +0.000 C 
BRANCH  16  21
ATOM     17  C   UNL     1     -19.883  -3.412  64.567  0.00  0.00    +0.000 C 
ATOM     18  C   UNL     1     -20.374  -2.412  63.552  0.00  0.00    +0.000 A 
ATOM     19  N   UNL     1     -21.520  -2.438  62.939  0.00  0.00    +0.000 NA
ATOM     20  O   UNL     1     -21.614  -1.492  62.185  0.00  0.00    +0.000 OA
ATOM     21  C   UNL     1     -20.503  -0.752  62.247  0.00  0.00    +0.000 A 
ATOM     22  N   UNL     1     -19.710  -1.326  63.118  0.00  0.00    +0.000 NA
ENDBRANCH  16  21
ENDBRANCH  14  16
ENDBRANCH  13  14
ENDBRANCH   1  13
TORSDOF 4
ENDMDL
MODEL 4
REMARK VINA RESULT:      -9.0      1.700      2.749
REMARK  Name = ZINC000072206568 1
REMARK  6 active torsions:
REMARK  status: ('A' for Active; 'I' for Inactive)
REMARK    1  A    between atoms: C_1  and  C_2
REMARK    2  A    between atoms: C_5  and  C_6
REMARK    3  A    between atoms: C_6  and  N_7
REMARK    4  A    between atoms: N_7  and  C_8
REMARK    5  A    between atoms: C_8  and  C_9
REMARK    6  A    between atoms: N_17  and  C_18
REMARK                            x       y       z     vdW  Elec       q    Type
REMARK                         _______ _______ _______ _____ _____    ______ ____
ROOT
ATOM      1  C   UNL     1     -17.224   2.378  61.305  0.00  0.00    +0.000 A 
ATOM      2  C   UNL     1     -17.231   2.408  59.949  0.00  0.00    +0.000 A 
ATOM      3  C   UNL     1     -17.031   3.693  59.276  0.00  0.00    +0.000 A 
ATOM      4  C   UNL     1     -17.029   3.786  57.881  0.00  0.00    +0.000 A 
ATOM      5  C   UNL     1     -16.841   5.001  57.284  0.00  0.00    +0.000 A 
ATOM      6  C   UNL     1     -16.652   6.143  58.050  0.00  0.00    +0.000 A 
ATOM      7  C   UNL     1     -16.650   6.074  59.426  0.00  0.00    +0.000 A 
ATOM      8  C   UNL     1     -16.840   4.848  60.056  0.00  0.00    +0.000 A 
ATOM      9  N   UNL     1     -16.843   4.751  61.432  0.00  0.00    +0.000 N 
ATOM     10  C   UNL     1     -16.643   5.956  62.242  0.00  0.00    +0.000 C 
ATOM     11  C   UNL     1     -17.033   3.567  62.040  0.00  0.00    +0.000 A 
ATOM     12  O   UNL     1     -17.030   3.519  63.258  0.00  0.00    +0.000 OA
ENDROOT
BRANCH   1  13
ATOM     13  C   UNL     1     -17.427   1.072  62.028  0.00  0.00    +0.000 C 
BRANCH  13  14
ATOM     14  N   UNL     1     -16.268   0.804  62.890  0.00  0.00    +0.000 NA
ATOM     15  H   UNL     1     -15.870   1.664  63.237  0.00  0.00    +0.000 HD
BRANCH  14  16
ATOM     16  C   UNL     1     -16.630  -0.091  63.997  0.00  0.00    +0.000 C 
BRANCH  16  21
ATOM     17  C   UNL     1     -15.554  -4.977  63.786  0.00  0.00    +0.000 C 
ATOM     18  C   UNL     1     -15.458  -3.474  63.731  0.00  0.00    +0.000 A 
ATOM     19  N   UNL     1     -14.403  -2.782  63.421  0.00  0.00    +0.000 NA
ATOM     20  O   UNL     1     -14.651  -1.595  63.468  0.00  0.00    +0.000 OA
ATOM     21  C   UNL     1     -15.926  -1.413  63.824  0.00  0.00    +0.000 A 
ATOM     22  N   UNL     1     -16.451  -2.603  63.990  0.00  0.00    +0.000 NA
ENDBRANCH  16  21
ENDBRANCH  14  16
ENDBRANCH  13  14
ENDBRANCH   1  13
TORSDOF 4
ENDMDL
MODEL 5
REMARK VINA RESULT:      -8.9      2.200      2.526
REMARK  Name = ZINC000072206568 1
REMARK  6 active torsions:
REMARK  status: ('A' for Active; 'I' for Inactive)
REMARK    1  A    between atoms: C_1  and  C_2
REMARK    2  A    between atoms: C_5  and  C_6
REMARK    3  A    between atoms: C_6  and  N_7
REMARK    4  A    between atoms: N_7  and  C_8
REMARK    5  A    between atoms: C_8  and  C_9
REMARK    6  A    between atoms: N_17  and  C_18
REMARK                            x       y       z     vdW  Elec       q    Type
REMARK                         _______ _______ _______ _____ _____    ______ ____
ROOT
ATOM      1  C   UNL     1     -17.460   2.481  61.153  0.00  0.00    +0.000 A 
ATOM      2  C   UNL     1     -17.463   3.592  61.930  0.00  0.00    +0.000 A 
ATOM      3  C   UNL     1     -17.171   4.883  61.305  0.00  0.00    +0.000 A 
ATOM      4  C   UNL     1     -17.158   6.064  62.055  0.00  0.00    +0.000 A 
ATOM      5  C   UNL     1     -16.881   7.252  61.441  0.00  0.00    +0.000 A 
ATOM      6  C   UNL     1     -16.612   7.300  60.080  0.00  0.00    +0.000 A 
ATOM      7  C   UNL     1     -16.619   6.149  59.322  0.00  0.00    +0.000 A 
ATOM      8  C   UNL     1     -16.898   4.927  59.925  0.00  0.00    +0.000 A 
ATOM      9  N   UNL     1     -16.913   3.760  59.190  0.00  0.00    +0.000 N 
ATOM     10  C   UNL     1     -16.629   3.808  57.753  0.00  0.00    +0.000 C 
ATOM     11  C   UNL     1     -17.176   2.578  59.775  0.00  0.00    +0.000 A 
ATOM     12  O   UNL     1     -17.179   1.567  59.094  0.00  0.00    +0.000 OA
ENDROOT
BRANCH   1  13
ATOM     13  C   UNL     1     -17.756   1.136  61.765  0.00  0.00    +0.000 C 
BRANCH  13  14
ATOM     14  N   UNL     1     -18.767   0.441  60.956  0.00  0.00    +0.000 NA
ATOM     15  H   UNL     1     -18.529  -0.533  60.840  0.00  0.00    +0.000 HD
BRANCH  14  16
ATOM     16  C   UNL     1     -20.105   0.590  61.543  0.00  0.00    +0.000 C 
BRANCH  16  21
ATOM     17  C   UNL     1     -20.122  -3.532  64.386  0.00  0.00    +0.000 C 
ATOM     18  C   UNL     1     -20.516  -2.436  63.429  0.00  0.00    +0.000 A 
ATOM     19  N   UNL     1     -21.648  -2.339  62.797  0.00  0.00    +0.000 NA
ATOM     20  O   UNL     1     -21.656  -1.342  62.104  0.00  0.00    +0.000 OA
ATOM     21  C   UNL     1     -20.496  -0.691  62.233  0.00  0.00    +0.000 A 
ATOM     22  N   UNL     1     -19.765  -1.376  63.078  0.00  0.00    +0.000 NA
ENDBRANCH  16  21
ENDBRANCH  14  16
ENDBRANCH  13  14
ENDBRANCH   1  13
TORSDOF 4
ENDMDL
MODEL 6
REMARK VINA RESULT:      -7.5      2.099      7.633
REMARK  Name = ZINC000072206568 1
REMARK  6 active torsions:
REMARK  status: ('A' for Active; 'I' for Inactive)
REMARK    1  A    between atoms: C_1  and  C_2
REMARK    2  A    between atoms: C_5  and  C_6
REMARK    3  A    between atoms: C_6  and  N_7
REMARK    4  A    between atoms: N_7  and  C_8
REMARK    5  A    between atoms: C_8  and  C_9
REMARK    6  A    between atoms: N_17  and  C_18
REMARK                            x       y       z     vdW  Elec       q    Type
REMARK                         _______ _______ _______ _____ _____    ______ ____
ROOT
ATOM      1  C   UNL     1     -18.486   1.032  61.751  0.00  0.00    +0.000 A 
ATOM      2  C   UNL     1     -19.687   0.405  61.700  0.00  0.00    +0.000 A 
ATOM      3  C   UNL     1     -19.882  -0.798  62.512  0.00  0.00    +0.000 A 
ATOM      4  C   UNL     1     -21.099  -1.488  62.500  0.00  0.00    +0.000 A 
ATOM      5  C   UNL     1     -21.248  -2.608  63.268  0.00  0.00    +0.000 A 
ATOM      6  C   UNL     1     -20.205  -3.067  64.060  0.00  0.00    +0.000 A 
ATOM      7  C   UNL     1     -18.998  -2.402  64.087  0.00  0.00    +0.000 A 
ATOM      8  C   UNL     1     -18.822  -1.260  63.313  0.00  0.00    +0.000 A 
ATOM      9  N   UNL     1     -17.625  -0.575  63.321  0.00  0.00    +0.000 N 
ATOM     10  C   UNL     1     -16.522  -1.058  64.157  0.00  0.00    +0.000 C 
ATOM     11  C   UNL     1     -17.453   0.525  62.568  0.00  0.00    +0.000 A 
ATOM     12  O   UNL     1     -16.381   1.104  62.599  0.00  0.00    +0.000 OA
ENDROOT
BRANCH   1  13
ATOM     13  C   UNL     1     -18.251   2.273  60.928  0.00  0.00    +0.000 C 
BRANCH  13  14
ATOM     14  N   UNL     1     -17.085   2.070  60.057  0.00  0.00    +0.000 NA
ATOM     15  H   UNL     1     -17.063   1.127  59.698  0.00  0.00    +0.000 HD
BRANCH  14  16
ATOM     16  C   UNL     1     -17.069   3.050  58.963  0.00  0.00    +0.000 C 
BRANCH  16  21
ATOM     17  C   UNL     1     -15.738   6.848  61.943  0.00  0.00    +0.000 C 
ATOM     18  C   UNL     1     -16.213   6.033  60.767  0.00  0.00    +0.000 A 
ATOM     19  N   UNL     1     -16.587   6.496  59.612  0.00  0.00    +0.000 NA
ATOM     20  O   UNL     1     -16.912   5.584  58.880  0.00  0.00    +0.000 OA
ATOM     21  C   UNL     1     -16.773   4.419  59.518  0.00  0.00    +0.000 A 
ATOM     22  N   UNL     1     -16.324   4.693  60.719  0.00  0.00    +0.000 NA
ENDBRANCH  16  21
ENDBRANCH  14  16
ENDBRANCH  13  14
ENDBRANCH   1  13
TORSDOF 4
ENDMDL
MODEL 7
REMARK VINA RESULT:      -7.3      2.128      7.987
REMARK  Name = ZINC000072206568 1
REMARK  6 active torsions:
REMARK  status: ('A' for Active; 'I' for Inactive)
REMARK    1  A    between atoms: C_1  and  C_2
REMARK    2  A    between atoms: C_5  and  C_6
REMARK    3  A    between atoms: C_6  and  N_7
REMARK    4  A    between atoms: N_7  and  C_8
REMARK    5  A    between atoms: C_8  and  C_9
REMARK    6  A    between atoms: N_17  and  C_18
REMARK                            x       y       z     vdW  Elec       q    Type
REMARK                         _______ _______ _______ _____ _____    ______ ____
ROOT
ATOM      1  C   UNL     1     -16.599  -0.407  63.585  0.00  0.00    +0.000 A 
ATOM      2  C   UNL     1     -17.865  -0.807  63.858  0.00  0.00    +0.000 A 
ATOM      3  C   UNL     1     -18.108  -2.226  64.125  0.00  0.00    +0.000 A 
ATOM      4  C   UNL     1     -19.393  -2.698  64.411  0.00  0.00    +0.000 A 
ATOM      5  C   UNL     1     -19.586  -4.029  64.655  0.00  0.00    +0.000 A 
ATOM      6  C   UNL     1     -18.519  -4.916  64.621  0.00  0.00    +0.000 A 
ATOM      7  C   UNL     1     -17.244  -4.473  64.341  0.00  0.00    +0.000 A 
ATOM      8  C   UNL     1     -17.024  -3.122  64.089  0.00  0.00    +0.000 A 
ATOM      9  N   UNL     1     -15.759  -2.651  63.807  0.00  0.00    +0.000 N 
ATOM     10  C   UNL     1     -14.631  -3.586  63.771  0.00  0.00    +0.000 C 
ATOM     11  C   UNL     1     -15.547  -1.347  63.557  0.00  0.00    +0.000 A 
ATOM     12  O   UNL     1     -14.415  -0.967  63.310  0.00  0.00    +0.000 OA
ENDROOT
BRANCH   1  13
ATOM     13  C   UNL     1     -16.314   1.046  63.306  0.00  0.00    +0.000 C 
BRANCH  13  14
ATOM     14  N   UNL     1     -16.238   1.261  61.854  0.00  0.00    +0.000 NA
ATOM     15  H   UNL     1     -16.138   0.384  61.365  0.00  0.00    +0.000 HD
BRANCH  14  16
ATOM     16  C   UNL     1     -17.409   2.003  61.369  0.00  0.00    +0.000 C 
BRANCH  16  21
ATOM     17  C   UNL     1     -16.987   4.852  57.273  0.00  0.00    +0.000 C 
ATOM     18  C   UNL     1     -16.964   3.690  58.232  0.00  0.00    +0.000 A 
ATOM     19  N   UNL     1     -16.586   2.476  57.959  0.00  0.00    +0.000 NA
ATOM     20  O   UNL     1     -16.684   1.775  58.945  0.00  0.00    +0.000 OA
ATOM     21  C   UNL     1     -17.147   2.497  59.970  0.00  0.00    +0.000 A 
ATOM     22  N   UNL     1     -17.323   3.719  59.528  0.00  0.00    +0.000 NA
ENDBRANCH  16  21
ENDBRANCH  14  16
ENDBRANCH  13  14
ENDBRANCH   1  13
TORSDOF 4
ENDMDL
MODEL 8
REMARK VINA RESULT:      -7.2      1.648      8.004
REMARK  Name = ZINC000072206568 1
REMARK  6 active torsions:
REMARK  status: ('A' for Active; 'I' for Inactive)
REMARK    1  A    between atoms: C_1  and  C_2
REMARK    2  A    between atoms: C_5  and  C_6
REMARK    3  A    between atoms: C_6  and  N_7
REMARK    4  A    between atoms: N_7  and  C_8
REMARK    5  A    between atoms: C_8  and  C_9
REMARK    6  A    between atoms: N_17  and  C_18
REMARK                            x       y       z     vdW  Elec       q    Type
REMARK                         _______ _______ _______ _____ _____    ______ ____
ROOT
ATOM      1  C   UNL     1     -16.647  -0.261  63.451  0.00  0.00    +0.000 A 
ATOM      2  C   UNL     1     -17.894  -0.716  63.726  0.00  0.00    +0.000 A 
ATOM      3  C   UNL     1     -18.066  -2.133  64.050  0.00  0.00    +0.000 A 
ATOM      4  C   UNL     1     -19.328  -2.661  64.341  0.00  0.00    +0.000 A 
ATOM      5  C   UNL     1     -19.454  -3.989  64.638  0.00  0.00    +0.000 A 
ATOM      6  C   UNL     1     -18.342  -4.819  64.654  0.00  0.00    +0.000 A 
ATOM      7  C   UNL     1     -17.089  -4.320  64.370  0.00  0.00    +0.000 A 
ATOM      8  C   UNL     1     -16.936  -2.971  64.064  0.00  0.00    +0.000 A 
ATOM      9  N   UNL     1     -15.693  -2.446  63.777  0.00  0.00    +0.000 N 
ATOM     10  C   UNL     1     -14.518  -3.321  63.793  0.00  0.00    +0.000 C 
ATOM     11  C   UNL     1     -15.547  -1.144  63.474  0.00  0.00    +0.000 A 
ATOM     12  O   UNL     1     -14.433  -0.715  63.225  0.00  0.00    +0.000 OA
ENDROOT
BRANCH   1  13
ATOM     13  C   UNL     1     -16.435   1.193  63.114  0.00  0.00    +0.000 C 
BRANCH  13  14
ATOM     14  N   UNL     1     -16.431   1.362  61.654  0.00  0.00    +0.000 NA
ATOM     15  H   UNL     1     -16.420   0.467  61.188  0.00  0.00    +0.000 HD
BRANCH  14  16
ATOM     16  C   UNL     1     -17.577   2.169  61.215  0.00  0.00    +0.000 C 
BRANCH  16  21
ATOM     17  C   UNL     1     -16.021   6.892  61.809  0.00  0.00    +0.000 C 
ATOM     18  C   UNL     1     -16.471   5.585  61.209  0.00  0.00    +0.000 A 
ATOM     19  N   UNL     1     -16.608   5.327  59.942  0.00  0.00    +0.000 NA
ATOM     20  O   UNL     1     -16.985   4.184  59.785  0.00  0.00    +0.000 OA
ATOM     21  C   UNL     1     -17.129   3.587  60.972  0.00  0.00    +0.000 A 
ATOM     22  N   UNL     1     -16.799   4.469  61.885  0.00  0.00    +0.000 NA
ENDBRANCH  16  21
ENDBRANCH  14  16
ENDBRANCH  13  14
ENDBRANCH   1  13
TORSDOF 4
ENDMDL
MODEL 9
REMARK VINA RESULT:      -6.8      2.086      7.480
REMARK  Name = ZINC000072206568 1
REMARK  6 active torsions:
REMARK  status: ('A' for Active; 'I' for Inactive)
REMARK    1  A    between atoms: C_1  and  C_2
REMARK    2  A    between atoms: C_5  and  C_6
REMARK    3  A    between atoms: C_6  and  N_7
REMARK    4  A    between atoms: N_7  and  C_8
REMARK    5  A    between atoms: C_8  and  C_9
REMARK    6  A    between atoms: N_17  and  C_18
REMARK                            x       y       z     vdW  Elec       q    Type
REMARK                         _______ _______ _______ _____ _____    ______ ____
ROOT
ATOM      1  C   UNL     1     -18.524   0.980  61.747  0.00  0.00    +0.000 A 
ATOM      2  C   UNL     1     -19.722   0.348  61.692  0.00  0.00    +0.000 A 
ATOM      3  C   UNL     1     -19.923  -0.845  62.518  0.00  0.00    +0.000 A 
ATOM      4  C   UNL     1     -21.137  -1.539  62.502  0.00  0.00    +0.000 A 
ATOM      5  C   UNL     1     -21.291  -2.649  63.284  0.00  0.00    +0.000 A 
ATOM      6  C   UNL     1     -20.255  -3.093  64.094  0.00  0.00    +0.000 A 
ATOM      7  C   UNL     1     -19.051  -2.424  64.126  0.00  0.00    +0.000 A 
ATOM      8  C   UNL     1     -18.870  -1.291  63.337  0.00  0.00    +0.000 A 
ATOM      9  N   UNL     1     -17.676  -0.602  63.349  0.00  0.00    +0.000 N 
ATOM     10  C   UNL     1     -16.581  -1.070  64.204  0.00  0.00    +0.000 C 
ATOM     11  C   UNL     1     -17.499   0.488  62.582  0.00  0.00    +0.000 A 
ATOM     12  O   UNL     1     -16.429   1.071  62.618  0.00  0.00    +0.000 OA
ENDROOT
BRANCH   1  13
ATOM     13  C   UNL     1     -18.284   2.210  60.910  0.00  0.00    +0.000 C 
BRANCH  13  14
ATOM     14  N   UNL     1     -17.097   2.006  60.068  0.00  0.00    +0.000 NA
ATOM     15  H   UNL     1     -17.247   1.256  59.409  0.00  0.00    +0.000 HD
BRANCH  14  16
ATOM     16  C   UNL     1     -16.723   3.247  59.377  0.00  0.00    +0.000 C 
BRANCH  16  21
ATOM     17  C   UNL     1     -17.124   7.754  61.520  0.00  0.00    +0.000 C 
ATOM     18  C   UNL     1     -16.880   6.286  61.279  0.00  0.00    +0.000 A 
ATOM     19  N   UNL     1     -16.484   5.418  62.161  0.00  0.00    +0.000 NA
ATOM     20  O   UNL     1     -16.383   4.321  61.654  0.00  0.00    +0.000 OA
ATOM     21  C   UNL     1     -16.715   4.387  60.361  0.00  0.00    +0.000 A 
ATOM     22  N   UNL     1     -17.038   5.634  60.113  0.00  0.00    +0.000 NA
ENDBRANCH  16  21
ENDBRANCH  14  16
ENDBRANCH  13  14
ENDBRANCH   1  13
TORSDOF 4
ENDMDL
