MODEL 1
REMARK VINA RESULT:     -10.0      0.000      0.000
REMARK  Name = ZINC000000527372 1
REMARK  4 active torsions:
REMARK  status: ('A' for Active; 'I' for Inactive)
REMARK    1  A    between atoms: C_1  and  N_2
REMARK    2  A    between atoms: C_7  and  C_9
REMARK    3  A    between atoms: C_9  and  O_10
REMARK    4  A    between atoms: O_10  and  C_11
REMARK                            x       y       z     vdW  Elec       q    Type
REMARK                         _______ _______ _______ _____ _____    ______ ____
ROOT
ATOM      1  C   UNL     1     -16.521   0.801  63.219  0.00  0.00    +0.000 C 
ENDROOT
BRANCH   1   8
ATOM      2  C   UNL     1     -20.130  -5.409  64.802  0.00  0.00    +0.000 C 
ATOM      3  N   UNL     1     -19.145  -4.351  64.567  0.00  0.00    +0.000 N 
ATOM      4  N   UNL     1     -17.868  -4.446  64.717  0.00  0.00    +0.000 NA
ATOM      5  N   UNL     1     -17.314  -3.324  64.422  0.00  0.00    +0.000 NA
ATOM      6  C   UNL     1     -18.244  -2.440  64.060  0.00  0.00    +0.000 A 
ATOM      7  N   UNL     1     -18.019  -1.115  63.671  0.00  0.00    +0.000 N 
ATOM      8  C   UNL     1     -16.764  -0.626  63.638  0.00  0.00    +0.000 C 
ATOM      9  O   UNL     1     -15.829  -1.334  63.947  0.00  0.00    +0.000 OA
ATOM     10  N   UNL     1     -19.412  -3.043  64.131  0.00  0.00    +0.000 NA
ATOM     11  H   UNL     1     -18.767  -0.548  63.424  0.00  0.00    +0.000 HD
ENDBRANCH   1   8
BRANCH   1  12
ATOM     12  O   UNL     1     -17.436   1.155  62.180  0.00  0.00    +0.000 OA
BRANCH  12  13
ATOM     13  C   UNL     1     -17.260   2.366  61.589  0.00  0.00    +0.000 A 
ATOM     14  C   UNL     1     -17.069   3.500  62.383  0.00  0.00    +0.000 A 
ATOM     15  C   UNL     1     -16.890   4.726  61.821  0.00  0.00    +0.000 A 
ATOM     16  C   UNL     1     -16.896   4.859  60.422  0.00  0.00    +0.000 A 
ATOM     17  C   UNL     1     -16.714   6.110  59.808  0.00  0.00    +0.000 A 
ATOM     18  C   UNL     1     -16.726   6.201  58.450  0.00  0.00    +0.000 A 
ATOM     19  C   UNL     1     -16.916   5.072  57.655  0.00  0.00    +0.000 A 
ATOM     20  C   UNL     1     -17.095   3.844  58.214  0.00  0.00    +0.000 A 
ATOM     21  C   UNL     1     -17.089   3.709  59.614  0.00  0.00    +0.000 A 
ATOM     22  C   UNL     1     -17.266   2.458  60.226  0.00  0.00    +0.000 A 
ENDBRANCH  12  13
ENDBRANCH   1  12
TORSDOF 3
ENDMDL
MODEL 2
REMARK VINA RESULT:      -9.9      0.600      1.788
REMARK  Name = ZINC000000527372 1
REMARK  4 active torsions:
REMARK  status: ('A' for Active; 'I' for Inactive)
REMARK    1  A    between atoms: C_1  and  N_2
REMARK    2  A    between atoms: C_7  and  C_9
REMARK    3  A    between atoms: C_9  and  O_10
REMARK    4  A    between atoms: O_10  and  C_11
REMARK                            x       y       z     vdW  Elec       q    Type
REMARK                         _______ _______ _______ _____ _____    ______ ____
ROOT
ATOM      1  C   UNL     1     -16.695   0.886  63.145  0.00  0.00    +0.000 C 
ENDROOT
BRANCH   1   8
ATOM      2  C   UNL     1     -20.073  -5.434  64.802  0.00  0.00    +0.000 C 
ATOM      3  N   UNL     1     -19.127  -4.342  64.556  0.00  0.00    +0.000 N 
ATOM      4  N   UNL     1     -17.848  -4.387  64.712  0.00  0.00    +0.000 NA
ATOM      5  N   UNL     1     -17.336  -3.249  64.403  0.00  0.00    +0.000 NA
ATOM      6  C   UNL     1     -18.297  -2.406  64.025  0.00  0.00    +0.000 A 
ATOM      7  N   UNL     1     -18.121  -1.078  63.619  0.00  0.00    +0.000 N 
ATOM      8  C   UNL     1     -16.885  -0.543  63.583  0.00  0.00    +0.000 C 
ATOM      9  O   UNL     1     -15.925  -1.211  63.905  0.00  0.00    +0.000 OA
ATOM     10  N   UNL     1     -19.442  -3.051  64.100  0.00  0.00    +0.000 NA
ATOM     11  H   UNL     1     -18.889  -0.544  63.361  0.00  0.00    +0.000 HD
ENDBRANCH   1   8
BRANCH   1  12
ATOM     12  O   UNL     1     -17.426   1.117  61.940  0.00  0.00    +0.000 OA
BRANCH  12  13
ATOM     13  C   UNL     1     -17.236   2.312  61.321  0.00  0.00    +0.000 A 
ATOM     14  C   UNL     1     -17.218   2.372  59.925  0.00  0.00    +0.000 A 
ATOM     15  C   UNL     1     -17.030   3.552  59.277  0.00  0.00    +0.000 A 
ATOM     16  C   UNL     1     -16.850   4.733  60.018  0.00  0.00    +0.000 A 
ATOM     17  C   UNL     1     -16.655   5.971  59.382  0.00  0.00    +0.000 A 
ATOM     18  C   UNL     1     -16.484   7.094  60.132  0.00  0.00    +0.000 A 
ATOM     19  C   UNL     1     -16.501   7.038  61.524  0.00  0.00    +0.000 A 
ATOM     20  C   UNL     1     -16.689   5.857  62.176  0.00  0.00    +0.000 A 
ATOM     21  C   UNL     1     -16.869   4.675  61.436  0.00  0.00    +0.000 A 
ATOM     22  C   UNL     1     -17.069   3.441  62.073  0.00  0.00    +0.000 A 
ENDBRANCH  12  13
ENDBRANCH   1  12
TORSDOF 3
ENDMDL
MODEL 3
REMARK VINA RESULT:      -9.2      1.814      2.143
REMARK  Name = ZINC000000527372 1
REMARK  4 active torsions:
REMARK  status: ('A' for Active; 'I' for Inactive)
REMARK    1  A    between atoms: C_1  and  N_2
REMARK    2  A    between atoms: C_7  and  C_9
REMARK    3  A    between atoms: C_9  and  O_10
REMARK    4  A    between atoms: O_10  and  C_11
REMARK                            x       y       z     vdW  Elec       q    Type
REMARK                         _______ _______ _______ _____ _____    ______ ____
ROOT
ATOM      1  C   UNL     1     -16.629   1.271  63.280  0.00  0.00    +0.000 C 
ENDROOT
BRANCH   1   8
ATOM      2  C   UNL     1     -14.403  -5.687  64.138  0.00  0.00    +0.000 C 
ATOM      3  N   UNL     1     -15.148  -4.437  63.966  0.00  0.00    +0.000 N 
ATOM      4  N   UNL     1     -16.429  -4.313  63.887  0.00  0.00    +0.000 NA
ATOM      5  N   UNL     1     -16.734  -3.073  63.739  0.00  0.00    +0.000 NA
ATOM      6  C   UNL     1     -15.626  -2.333  63.717  0.00  0.00    +0.000 A 
ATOM      7  N   UNL     1     -15.563  -0.942  63.571  0.00  0.00    +0.000 N 
ATOM      8  C   UNL     1     -16.696  -0.227  63.437  0.00  0.00    +0.000 C 
ATOM      9  O   UNL     1     -17.772  -0.787  63.441  0.00  0.00    +0.000 OA
ATOM     10  N   UNL     1     -14.602  -3.147  63.862  0.00  0.00    +0.000 NA
ATOM     11  H   UNL     1     -14.703  -0.494  63.568  0.00  0.00    +0.000 HD
ENDBRANCH   1   8
BRANCH   1  12
ATOM     12  O   UNL     1     -17.567   1.689  62.288  0.00  0.00    +0.000 OA
BRANCH  12  13
ATOM     13  C   UNL     1     -17.303   2.855  61.642  0.00  0.00    +0.000 A 
ATOM     14  C   UNL     1     -17.030   4.009  62.383  0.00  0.00    +0.000 A 
ATOM     15  C   UNL     1     -16.763   5.190  61.765  0.00  0.00    +0.000 A 
ATOM     16  C   UNL     1     -16.759   5.258  60.361  0.00  0.00    +0.000 A 
ATOM     17  C   UNL     1     -16.485   6.462  59.690  0.00  0.00    +0.000 A 
ATOM     18  C   UNL     1     -16.490   6.490  58.329  0.00  0.00    +0.000 A 
ATOM     19  C   UNL     1     -16.762   5.342  57.587  0.00  0.00    +0.000 A 
ATOM     20  C   UNL     1     -17.030   4.158  58.203  0.00  0.00    +0.000 A 
ATOM     21  C   UNL     1     -17.034   4.088  59.607  0.00  0.00    +0.000 A 
ATOM     22  C   UNL     1     -17.303   2.884  60.276  0.00  0.00    +0.000 A 
ENDBRANCH  12  13
ENDBRANCH   1  12
TORSDOF 3
ENDMDL
MODEL 4
REMARK VINA RESULT:      -8.9      1.129      1.478
REMARK  Name = ZINC000000527372 1
REMARK  4 active torsions:
REMARK  status: ('A' for Active; 'I' for Inactive)
REMARK    1  A    between atoms: C_1  and  N_2
REMARK    2  A    between atoms: C_7  and  C_9
REMARK    3  A    between atoms: C_9  and  O_10
REMARK    4  A    between atoms: O_10  and  C_11
REMARK                            x       y       z     vdW  Elec       q    Type
REMARK                         _______ _______ _______ _____ _____    ______ ____
ROOT
ATOM      1  C   UNL     1     -16.539   1.141  62.875  0.00  0.00    +0.000 C 
ENDROOT
BRANCH   1   8
ATOM      2  C   UNL     1     -20.003  -5.056  64.802  0.00  0.00    +0.000 C 
ATOM      3  N   UNL     1     -19.602  -3.750  64.273  0.00  0.00    +0.000 N 
ATOM      4  N   UNL     1     -20.334  -2.945  63.581  0.00  0.00    +0.000 NA
ATOM      5  N   UNL     1     -19.658  -1.892  63.286  0.00  0.00    +0.000 NA
ATOM      6  C   UNL     1     -18.429  -1.985  63.793  0.00  0.00    +0.000 A 
ATOM      7  N   UNL     1     -17.412  -1.031  63.677  0.00  0.00    +0.000 N 
ATOM      8  C   UNL     1     -17.634   0.112  63.000  0.00  0.00    +0.000 C 
ATOM      9  O   UNL     1     -18.716   0.315  62.490  0.00  0.00    +0.000 OA
ATOM     10  N   UNL     1     -18.348  -3.135  64.428  0.00  0.00    +0.000 NA
ATOM     11  H   UNL     1     -16.546  -1.192  64.085  0.00  0.00    +0.000 HD
ENDBRANCH   1   8
BRANCH   1  12
ATOM     12  O   UNL     1     -17.058   2.431  63.199  0.00  0.00    +0.000 OA
BRANCH  12  13
ATOM     13  C   UNL     1     -16.932   3.402  62.256  0.00  0.00    +0.000 A 
ATOM     14  C   UNL     1     -16.623   4.708  62.646  0.00  0.00    +0.000 A 
ATOM     15  C   UNL     1     -16.490   5.701  61.727  0.00  0.00    +0.000 A 
ATOM     16  C   UNL     1     -16.665   5.414  60.362  0.00  0.00    +0.000 A 
ATOM     17  C   UNL     1     -16.535   6.416  59.384  0.00  0.00    +0.000 A 
ATOM     18  C   UNL     1     -16.712   6.102  58.072  0.00  0.00    +0.000 A 
ATOM     19  C   UNL     1     -17.020   4.801  57.679  0.00  0.00    +0.000 A 
ATOM     20  C   UNL     1     -17.153   3.805  58.597  0.00  0.00    +0.000 A 
ATOM     21  C   UNL     1     -16.978   4.089  59.963  0.00  0.00    +0.000 A 
ATOM     22  C   UNL     1     -17.104   3.087  60.938  0.00  0.00    +0.000 A 
ENDBRANCH  12  13
ENDBRANCH   1  12
TORSDOF 3
ENDMDL
MODEL 5
REMARK VINA RESULT:      -8.8      1.861      2.746
REMARK  Name = ZINC000000527372 1
REMARK  4 active torsions:
REMARK  status: ('A' for Active; 'I' for Inactive)
REMARK    1  A    between atoms: C_1  and  N_2
REMARK    2  A    between atoms: C_7  and  C_9
REMARK    3  A    between atoms: C_9  and  O_10
REMARK    4  A    between atoms: O_10  and  C_11
REMARK                            x       y       z     vdW  Elec       q    Type
REMARK                         _______ _______ _______ _____ _____    ______ ____
ROOT
ATOM      1  C   UNL     1     -16.695   1.170  63.003  0.00  0.00    +0.000 C 
ENDROOT
BRANCH   1   8
ATOM      2  C   UNL     1     -14.409  -5.714  64.226  0.00  0.00    +0.000 C 
ATOM      3  N   UNL     1     -15.165  -4.476  64.018  0.00  0.00    +0.000 N 
ATOM      4  N   UNL     1     -16.448  -4.350  64.036  0.00  0.00    +0.000 NA
ATOM      5  N   UNL     1     -16.764  -3.124  63.814  0.00  0.00    +0.000 NA
ATOM      6  C   UNL     1     -15.661  -2.395  63.641  0.00  0.00    +0.000 A 
ATOM      7  N   UNL     1     -15.609  -1.021  63.380  0.00  0.00    +0.000 N 
ATOM      8  C   UNL     1     -16.750  -0.310  63.284  0.00  0.00    +0.000 C 
ATOM      9  O   UNL     1     -17.822  -0.861  63.422  0.00  0.00    +0.000 OA
ATOM     10  N   UNL     1     -14.629  -3.202  63.766  0.00  0.00    +0.000 NA
ATOM     11  H   UNL     1     -14.752  -0.580  63.270  0.00  0.00    +0.000 HD
ENDBRANCH   1   8
BRANCH   1  12
ATOM     12  O   UNL     1     -17.620   1.492  61.963  0.00  0.00    +0.000 OA
BRANCH  12  13
ATOM     13  C   UNL     1     -17.390   2.636  61.266  0.00  0.00    +0.000 A 
ATOM     14  C   UNL     1     -17.234   2.579  59.878  0.00  0.00    +0.000 A 
ATOM     15  C   UNL     1     -17.003   3.706  59.153  0.00  0.00    +0.000 A 
ATOM     16  C   UNL     1     -16.919   4.949  59.804  0.00  0.00    +0.000 A 
ATOM     17  C   UNL     1     -16.682   6.133  59.086  0.00  0.00    +0.000 A 
ATOM     18  C   UNL     1     -16.607   7.319  59.749  0.00  0.00    +0.000 A 
ATOM     19  C   UNL     1     -16.762   7.380  61.132  0.00  0.00    +0.000 A 
ATOM     20  C   UNL     1     -16.993   6.254  61.862  0.00  0.00    +0.000 A 
ATOM     21  C   UNL     1     -17.078   5.010  61.212  0.00  0.00    +0.000 A 
ATOM     22  C   UNL     1     -17.319   3.828  61.931  0.00  0.00    +0.000 A 
ENDBRANCH  12  13
ENDBRANCH   1  12
TORSDOF 3
ENDMDL
MODEL 6
REMARK VINA RESULT:      -8.7      1.614      1.916
REMARK  Name = ZINC000000527372 1
REMARK  4 active torsions:
REMARK  status: ('A' for Active; 'I' for Inactive)
REMARK    1  A    between atoms: C_1  and  N_2
REMARK    2  A    between atoms: C_7  and  C_9
REMARK    3  A    between atoms: C_9  and  O_10
REMARK    4  A    between atoms: O_10  and  C_11
REMARK                            x       y       z     vdW  Elec       q    Type
REMARK                         _______ _______ _______ _____ _____    ______ ____
ROOT
ATOM      1  C   UNL     1     -16.917   1.059  63.241  0.00  0.00    +0.000 C 
ENDROOT
BRANCH   1   8
ATOM      2  C   UNL     1     -15.488  -6.070  64.356  0.00  0.00    +0.000 C 
ATOM      3  N   UNL     1     -15.447  -4.633  64.075  0.00  0.00    +0.000 N 
ATOM      4  N   UNL     1     -14.404  -3.941  63.763  0.00  0.00    +0.000 NA
ATOM      5  N   UNL     1     -14.738  -2.713  63.587  0.00  0.00    +0.000 NA
ATOM      6  C   UNL     1     -16.048  -2.565  63.783  0.00  0.00    +0.000 A 
ATOM      7  N   UNL     1     -16.771  -1.371  63.680  0.00  0.00    +0.000 N 
ATOM      8  C   UNL     1     -16.139  -0.227  63.353  0.00  0.00    +0.000 C 
ATOM      9  O   UNL     1     -14.944  -0.231  63.149  0.00  0.00    +0.000 OA
ATOM     10  N   UNL     1     -16.539  -3.748  64.087  0.00  0.00    +0.000 NA
ATOM     11  H   UNL     1     -17.727  -1.368  63.843  0.00  0.00    +0.000 HD
ENDBRANCH   1   8
BRANCH   1  12
ATOM     12  O   UNL     1     -17.432   1.191  61.915  0.00  0.00    +0.000 OA
BRANCH  12  13
ATOM     13  C   UNL     1     -17.248   2.388  61.298  0.00  0.00    +0.000 A 
ATOM     14  C   UNL     1     -17.089   3.544  62.068  0.00  0.00    +0.000 A 
ATOM     15  C   UNL     1     -16.903   4.756  61.480  0.00  0.00    +0.000 A 
ATOM     16  C   UNL     1     -16.872   4.853  60.078  0.00  0.00    +0.000 A 
ATOM     17  C   UNL     1     -16.681   6.089  59.437  0.00  0.00    +0.000 A 
ATOM     18  C   UNL     1     -16.656   6.146  58.078  0.00  0.00    +0.000 A 
ATOM     19  C   UNL     1     -16.815   4.996  57.307  0.00  0.00    +0.000 A 
ATOM     20  C   UNL     1     -17.001   3.780  57.893  0.00  0.00    +0.000 A 
ATOM     21  C   UNL     1     -17.033   3.681  59.295  0.00  0.00    +0.000 A 
ATOM     22  C   UNL     1     -17.218   2.445  59.933  0.00  0.00    +0.000 A 
ENDBRANCH  12  13
ENDBRANCH   1  12
TORSDOF 3
ENDMDL
MODEL 7
REMARK VINA RESULT:      -8.0      1.903      2.243
REMARK  Name = ZINC000000527372 1
REMARK  4 active torsions:
REMARK  status: ('A' for Active; 'I' for Inactive)
REMARK    1  A    between atoms: C_1  and  N_2
REMARK    2  A    between atoms: C_7  and  C_9
REMARK    3  A    between atoms: C_9  and  O_10
REMARK    4  A    between atoms: O_10  and  C_11
REMARK                            x       y       z     vdW  Elec       q    Type
REMARK                         _______ _______ _______ _____ _____    ______ ____
ROOT
ATOM      1  C   UNL     1     -19.509   0.963  61.229  0.00  0.00    +0.000 C 
ENDROOT
BRANCH   1   8
ATOM      2  C   UNL     1     -22.476  -4.974  64.399  0.00  0.00    +0.000 C 
ATOM      3  N   UNL     1     -21.620  -3.873  63.949  0.00  0.00    +0.000 N 
ATOM      4  N   UNL     1     -20.408  -3.643  64.322  0.00  0.00    +0.000 NA
ATOM      5  N   UNL     1     -19.964  -2.594  63.726  0.00  0.00    +0.000 NA
ATOM      6  C   UNL     1     -20.905  -2.097  62.923  0.00  0.00    +0.000 A 
ATOM      7  N   UNL     1     -20.787  -0.961  62.113  0.00  0.00    +0.000 N 
ATOM      8  C   UNL     1     -19.637  -0.260  62.100  0.00  0.00    +0.000 C 
ATOM      9  O   UNL     1     -18.704  -0.612  62.790  0.00  0.00    +0.000 OA
ATOM     10  N   UNL     1     -21.964  -2.872  63.025  0.00  0.00    +0.000 NA
ATOM     11  H   UNL     1     -21.533  -0.679  61.561  0.00  0.00    +0.000 HD
ENDBRANCH   1   8
BRANCH   1  12
ATOM     12  O   UNL     1     -18.136   1.168  60.893  0.00  0.00    +0.000 OA
BRANCH  12  13
ATOM     13  C   UNL     1     -17.668   2.442  60.958  0.00  0.00    +0.000 A 
ATOM     14  C   UNL     1     -17.315   2.985  62.197  0.00  0.00    +0.000 A 
ATOM     15  C   UNL     1     -16.844   4.257  62.295  0.00  0.00    +0.000 A 
ATOM     16  C   UNL     1     -16.708   5.041  61.137  0.00  0.00    +0.000 A 
ATOM     17  C   UNL     1     -16.224   6.359  61.201  0.00  0.00    +0.000 A 
ATOM     18  C   UNL     1     -16.106   7.089  60.059  0.00  0.00    +0.000 A 
ATOM     19  C   UNL     1     -16.456   6.551  58.822  0.00  0.00    +0.000 A 
ATOM     20  C   UNL     1     -16.928   5.278  58.720  0.00  0.00    +0.000 A 
ATOM     21  C   UNL     1     -17.065   4.492  59.878  0.00  0.00    +0.000 A 
ATOM     22  C   UNL     1     -17.544   3.174  59.812  0.00  0.00    +0.000 A 
ENDBRANCH  12  13
ENDBRANCH   1  12
TORSDOF 3
ENDMDL
MODEL 8
REMARK VINA RESULT:      -8.0      1.939      2.872
REMARK  Name = ZINC000000527372 1
REMARK  4 active torsions:
REMARK  status: ('A' for Active; 'I' for Inactive)
REMARK    1  A    between atoms: C_1  and  N_2
REMARK    2  A    between atoms: C_7  and  C_9
REMARK    3  A    between atoms: C_9  and  O_10
REMARK    4  A    between atoms: O_10  and  C_11
REMARK                            x       y       z     vdW  Elec       q    Type
REMARK                         _______ _______ _______ _____ _____    ______ ____
ROOT
ATOM      1  C   UNL     1     -19.435   1.376  61.072  0.00  0.00    +0.000 C 
ENDROOT
BRANCH   1   8
ATOM      2  C   UNL     1     -22.112  -4.695  64.247  0.00  0.00    +0.000 C 
ATOM      3  N   UNL     1     -21.308  -3.559  63.790  0.00  0.00    +0.000 N 
ATOM      4  N   UNL     1     -20.098  -3.286  64.142  0.00  0.00    +0.000 NA
ATOM      5  N   UNL     1     -19.707  -2.216  63.546  0.00  0.00    +0.000 NA
ATOM      6  C   UNL     1     -20.681  -1.749  62.766  0.00  0.00    +0.000 A 
ATOM      7  N   UNL     1     -20.622  -0.603  61.965  0.00  0.00    +0.000 N 
ATOM      8  C   UNL     1     -19.499   0.141  61.935  0.00  0.00    +0.000 C 
ATOM      9  O   UNL     1     -18.540  -0.180  62.604  0.00  0.00    +0.000 OA
ATOM     10  N   UNL     1     -21.708  -2.564  62.882  0.00  0.00    +0.000 NA
ATOM     11  H   UNL     1     -21.389  -0.345  61.429  0.00  0.00    +0.000 HD
ENDBRANCH   1   8
BRANCH   1  12
ATOM     12  O   UNL     1     -18.126   1.499  60.514  0.00  0.00    +0.000 OA
BRANCH  12  13
ATOM     13  C   UNL     1     -17.628   2.757  60.381  0.00  0.00    +0.000 A 
ATOM     14  C   UNL     1     -17.576   3.347  59.115  0.00  0.00    +0.000 A 
ATOM     15  C   UNL     1     -17.083   4.604  58.949  0.00  0.00    +0.000 A 
ATOM     16  C   UNL     1     -16.618   5.323  60.063  0.00  0.00    +0.000 A 
ATOM     17  C   UNL     1     -16.103   6.624  59.928  0.00  0.00    +0.000 A 
ATOM     18  C   UNL     1     -15.662   7.291  61.029  0.00  0.00    +0.000 A 
ATOM     19  C   UNL     1     -15.712   6.705  62.293  0.00  0.00    +0.000 A 
ATOM     20  C   UNL     1     -16.205   5.447  62.463  0.00  0.00    +0.000 A 
ATOM     21  C   UNL     1     -16.671   4.726  61.349  0.00  0.00    +0.000 A 
ATOM     22  C   UNL     1     -17.189   3.429  61.486  0.00  0.00    +0.000 A 
ENDBRANCH  12  13
ENDBRANCH   1  12
TORSDOF 3
ENDMDL
MODEL 9
REMARK VINA RESULT:      -7.7      2.009      2.321
REMARK  Name = ZINC000000527372 1
REMARK  4 active torsions:
REMARK  status: ('A' for Active; 'I' for Inactive)
REMARK    1  A    between atoms: C_1  and  N_2
REMARK    2  A    between atoms: C_7  and  C_9
REMARK    3  A    between atoms: C_9  and  O_10
REMARK    4  A    between atoms: O_10  and  C_11
REMARK                            x       y       z     vdW  Elec       q    Type
REMARK                         _______ _______ _______ _____ _____    ______ ____
ROOT
ATOM      1  C   UNL     1     -16.377   1.628  62.917  0.00  0.00    +0.000 C 
ENDROOT
BRANCH   1   8
ATOM      2  C   UNL     1     -22.433  -2.344  61.630  0.00  0.00    +0.000 C 
ATOM      3  N   UNL     1     -21.172  -1.781  62.120  0.00  0.00    +0.000 N 
ATOM      4  N   UNL     1     -20.441  -2.252  63.072  0.00  0.00    +0.000 NA
ATOM      5  N   UNL     1     -19.408  -1.504  63.233  0.00  0.00    +0.000 NA
ATOM      6  C   UNL     1     -19.438  -0.495  62.363  0.00  0.00    +0.000 A 
ATOM      7  N   UNL     1     -18.483   0.521  62.240  0.00  0.00    +0.000 N 
ATOM      8  C   UNL     1     -17.407   0.535  63.050  0.00  0.00    +0.000 C 
ATOM      9  O   UNL     1     -17.265  -0.332  63.886  0.00  0.00    +0.000 OA
ATOM     10  N   UNL     1     -20.528  -0.630  61.636  0.00  0.00    +0.000 NA
ATOM     11  H   UNL     1     -18.596   1.214  61.571  0.00  0.00    +0.000 HD
ENDBRANCH   1   8
BRANCH   1  12
ATOM     12  O   UNL     1     -17.007   2.899  63.087  0.00  0.00    +0.000 OA
BRANCH  12  13
ATOM     13  C   UNL     1     -16.847   3.805  62.087  0.00  0.00    +0.000 A 
ATOM     14  C   UNL     1     -16.436   5.105  62.393  0.00  0.00    +0.000 A 
ATOM     15  C   UNL     1     -16.268   6.035  61.415  0.00  0.00    +0.000 A 
ATOM     16  C   UNL     1     -16.509   5.688  60.075  0.00  0.00    +0.000 A 
ATOM     17  C   UNL     1     -16.345   6.623  59.038  0.00  0.00    +0.000 A 
ATOM     18  C   UNL     1     -16.588   6.251  57.752  0.00  0.00    +0.000 A 
ATOM     19  C   UNL     1     -16.997   4.956  57.443  0.00  0.00    +0.000 A 
ATOM     20  C   UNL     1     -17.167   4.023  58.420  0.00  0.00    +0.000 A 
ATOM     21  C   UNL     1     -16.926   4.368  59.761  0.00  0.00    +0.000 A 
ATOM     22  C   UNL     1     -17.086   3.432  60.795  0.00  0.00    +0.000 A 
ENDBRANCH  12  13
ENDBRANCH   1  12
TORSDOF 3
ENDMDL
