MODEL 1
REMARK VINA RESULT:     -10.0      0.000      0.000
REMARK  Name = ZINC000000557335 1
REMARK  8 active torsions:
REMARK  status: ('A' for Active; 'I' for Inactive)
REMARK    1  A    between atoms: C_1  and  C_2
REMARK    2  A    between atoms: C_2  and  C_3
REMARK    3  A    between atoms: C_3  and  N_4
REMARK    4  A    between atoms: C_10  and  C_12
REMARK    5  A    between atoms: C_12  and  O_13
REMARK    6  A    between atoms: O_13  and  C_14
REMARK    7  A    between atoms: C_16  and  C_17
REMARK    8  A    between atoms: C_19  and  C_20
REMARK                            x       y       z     vdW  Elec       q    Type
REMARK                         _______ _______ _______ _____ _____    ______ ____
ROOT
ATOM      1  N   UNL     1     -18.105  -2.719  64.389  0.00  0.00    +0.000 N 
ATOM      2  N   UNL     1     -17.404  -3.938  64.421  0.00  0.00    +0.000 NA
ATOM      3  N   UNL     1     -16.215  -3.695  63.987  0.00  0.00    +0.000 NA
ATOM      4  N   UNL     1     -16.095  -2.453  63.684  0.00  0.00    +0.000 NA
ATOM      5  C   UNL     1     -17.222  -1.814  63.907  0.00  0.00    +0.000 A 
ATOM      6  N   UNL     1     -17.458  -0.462  63.695  0.00  0.00    +0.000 N 
ATOM      7  C   UNL     1     -16.476   0.327  63.217  0.00  0.00    +0.000 C 
ATOM      8  O   UNL     1     -15.386  -0.144  62.970  0.00  0.00    +0.000 OA
ATOM      9  H   UNL     1     -18.330  -0.087  63.893  0.00  0.00    +0.000 HD
ENDROOT
BRANCH   1  10
ATOM     10  C   UNL     1     -19.494  -2.481  64.787  0.00  0.00    +0.000 C 
BRANCH  10  12
ATOM     11  C   UNL     1     -21.151  -1.739  63.070  0.00  0.00    +0.000 C 
ATOM     12  C   UNL     1     -20.431  -2.948  63.672  0.00  0.00    +0.000 C 
ENDBRANCH  10  12
ENDBRANCH   1  10
BRANCH   7  13
ATOM     13  C   UNL     1     -16.735   1.794  62.987  0.00  0.00    +0.000 C 
BRANCH  13  14
ATOM     14  O   UNL     1     -17.386   1.970  61.727  0.00  0.00    +0.000 OA
BRANCH  14  15
ATOM     15  C   UNL     1     -17.152   3.137  61.070  0.00  0.00    +0.000 A 
ATOM     16  C   UNL     1     -17.288   3.199  59.692  0.00  0.00    +0.000 A 
ATOM     17  C   UNL     1     -17.051   4.387  59.028  0.00  0.00    +0.000 A 
ATOM     18  C   UNL     1     -17.199   4.454  57.529  0.00  0.00    +0.000 C 
ATOM     19  C   UNL     1     -16.679   5.514  59.737  0.00  0.00    +0.000 A 
ATOM     20  C   UNL     1     -16.542   5.455  61.111  0.00  0.00    +0.000 A 
ATOM     21  C   UNL     1     -16.136   6.686  61.881  0.00  0.00    +0.000 C 
ATOM     22  C   UNL     1     -16.784   4.272  61.781  0.00  0.00    +0.000 A 
ENDBRANCH  14  15
ENDBRANCH  13  14
ENDBRANCH   7  13
TORSDOF 5
ENDMDL
MODEL 2
REMARK VINA RESULT:     -10.0      0.031      1.866
REMARK  Name = ZINC000000557335 1
REMARK  8 active torsions:
REMARK  status: ('A' for Active; 'I' for Inactive)
REMARK    1  A    between atoms: C_1  and  C_2
REMARK    2  A    between atoms: C_2  and  C_3
REMARK    3  A    between atoms: C_3  and  N_4
REMARK    4  A    between atoms: C_10  and  C_12
REMARK    5  A    between atoms: C_12  and  O_13
REMARK    6  A    between atoms: O_13  and  C_14
REMARK    7  A    between atoms: C_16  and  C_17
REMARK    8  A    between atoms: C_19  and  C_20
REMARK                            x       y       z     vdW  Elec       q    Type
REMARK                         _______ _______ _______ _____ _____    ______ ____
ROOT
ATOM      1  N   UNL     1     -18.100  -2.729  64.397  0.00  0.00    +0.000 N 
ATOM      2  N   UNL     1     -17.391  -3.943  64.433  0.00  0.00    +0.000 NA
ATOM      3  N   UNL     1     -16.203  -3.694  64.000  0.00  0.00    +0.000 NA
ATOM      4  N   UNL     1     -16.091  -2.452  63.695  0.00  0.00    +0.000 NA
ATOM      5  C   UNL     1     -17.223  -1.820  63.914  0.00  0.00    +0.000 A 
ATOM      6  N   UNL     1     -17.468  -0.470  63.699  0.00  0.00    +0.000 N 
ATOM      7  C   UNL     1     -16.490   0.324  63.220  0.00  0.00    +0.000 C 
ATOM      8  O   UNL     1     -15.397  -0.139  62.976  0.00  0.00    +0.000 OA
ATOM      9  H   UNL     1     -18.343  -0.100  63.894  0.00  0.00    +0.000 HD
ENDROOT
BRANCH   1  10
ATOM     10  C   UNL     1     -19.491  -2.500  64.791  0.00  0.00    +0.000 C 
BRANCH  10  12
ATOM     11  C   UNL     1     -21.149  -1.752  63.078  0.00  0.00    +0.000 C 
ATOM     12  C   UNL     1     -20.423  -2.962  63.669  0.00  0.00    +0.000 C 
ENDBRANCH  10  12
ENDBRANCH   1  10
BRANCH   7  13
ATOM     13  C   UNL     1     -16.758   1.789  62.986  0.00  0.00    +0.000 C 
BRANCH  13  14
ATOM     14  O   UNL     1     -17.409   1.958  61.725  0.00  0.00    +0.000 OA
BRANCH  14  15
ATOM     15  C   UNL     1     -17.183   3.125  61.066  0.00  0.00    +0.000 A 
ATOM     16  C   UNL     1     -16.825   4.264  61.772  0.00  0.00    +0.000 A 
ATOM     17  C   UNL     1     -16.594   5.448  61.100  0.00  0.00    +0.000 A 
ATOM     18  C   UNL     1     -16.204   6.686  61.867  0.00  0.00    +0.000 C 
ATOM     19  C   UNL     1     -16.720   5.499  59.724  0.00  0.00    +0.000 A 
ATOM     20  C   UNL     1     -17.078   4.366  59.018  0.00  0.00    +0.000 A 
ATOM     21  C   UNL     1     -17.216   4.425  57.518  0.00  0.00    +0.000 C 
ATOM     22  C   UNL     1     -17.304   3.178  59.685  0.00  0.00    +0.000 A 
ENDBRANCH  14  15
ENDBRANCH  13  14
ENDBRANCH   7  13
TORSDOF 5
ENDMDL
MODEL 3
REMARK VINA RESULT:      -9.0      0.976      1.172
REMARK  Name = ZINC000000557335 1
REMARK  8 active torsions:
REMARK  status: ('A' for Active; 'I' for Inactive)
REMARK    1  A    between atoms: C_1  and  C_2
REMARK    2  A    between atoms: C_2  and  C_3
REMARK    3  A    between atoms: C_3  and  N_4
REMARK    4  A    between atoms: C_10  and  C_12
REMARK    5  A    between atoms: C_12  and  O_13
REMARK    6  A    between atoms: O_13  and  C_14
REMARK    7  A    between atoms: C_16  and  C_17
REMARK    8  A    between atoms: C_19  and  C_20
REMARK                            x       y       z     vdW  Elec       q    Type
REMARK                         _______ _______ _______ _____ _____    ______ ____
ROOT
ATOM      1  N   UNL     1     -19.423  -2.866  64.328  0.00  0.00    +0.000 N 
ATOM      2  N   UNL     1     -19.130  -4.166  64.775  0.00  0.00    +0.000 NA
ATOM      3  N   UNL     1     -17.845  -4.271  64.798  0.00  0.00    +0.000 NA
ATOM      4  N   UNL     1     -17.300  -3.175  64.412  0.00  0.00    +0.000 NA
ATOM      5  C   UNL     1     -18.221  -2.286  64.109  0.00  0.00    +0.000 A 
ATOM      6  N   UNL     1     -17.998  -0.992  63.657  0.00  0.00    +0.000 N 
ATOM      7  C   UNL     1     -16.739  -0.542  63.493  0.00  0.00    +0.000 C 
ATOM      8  O   UNL     1     -15.799  -1.267  63.739  0.00  0.00    +0.000 OA
ATOM      9  H   UNL     1     -18.751  -0.412  63.460  0.00  0.00    +0.000 HD
ENDROOT
BRANCH   1  10
ATOM     10  C   UNL     1     -20.746  -2.269  64.136  0.00  0.00    +0.000 C 
BRANCH  10  12
ATOM     11  C   UNL     1     -21.141  -1.009  62.014  0.00  0.00    +0.000 C 
ATOM     12  C   UNL     1     -21.153  -2.393  62.666  0.00  0.00    +0.000 C 
ENDBRANCH  10  12
ENDBRANCH   1  10
BRANCH   7  13
ATOM     13  C   UNL     1     -16.500   0.863  63.001  0.00  0.00    +0.000 C 
BRANCH  13  14
ATOM     14  O   UNL     1     -17.356   1.129  61.888  0.00  0.00    +0.000 OA
BRANCH  14  15
ATOM     15  C   UNL     1     -17.195   2.324  61.260  0.00  0.00    +0.000 A 
ATOM     16  C   UNL     1     -17.197   2.386  59.875  0.00  0.00    +0.000 A 
ATOM     17  C   UNL     1     -17.035   3.602  59.239  0.00  0.00    +0.000 A 
ATOM     18  C   UNL     1     -17.038   3.670  57.733  0.00  0.00    +0.000 C 
ATOM     19  C   UNL     1     -16.871   4.756  59.982  0.00  0.00    +0.000 A 
ATOM     20  C   UNL     1     -16.867   4.696  61.363  0.00  0.00    +0.000 A 
ATOM     21  C   UNL     1     -16.688   5.956  62.171  0.00  0.00    +0.000 C 
ATOM     22  C   UNL     1     -17.035   3.484  62.004  0.00  0.00    +0.000 A 
ENDBRANCH  14  15
ENDBRANCH  13  14
ENDBRANCH   7  13
TORSDOF 5
ENDMDL
MODEL 4
REMARK VINA RESULT:      -8.8      1.087      2.292
REMARK  Name = ZINC000000557335 1
REMARK  8 active torsions:
REMARK  status: ('A' for Active; 'I' for Inactive)
REMARK    1  A    between atoms: C_1  and  C_2
REMARK    2  A    between atoms: C_2  and  C_3
REMARK    3  A    between atoms: C_3  and  N_4
REMARK    4  A    between atoms: C_10  and  C_12
REMARK    5  A    between atoms: C_12  and  O_13
REMARK    6  A    between atoms: O_13  and  C_14
REMARK    7  A    between atoms: C_16  and  C_17
REMARK    8  A    between atoms: C_19  and  C_20
REMARK                            x       y       z     vdW  Elec       q    Type
REMARK                         _______ _______ _______ _____ _____    ______ ____
ROOT
ATOM      1  N   UNL     1     -19.664  -2.820  64.222  0.00  0.00    +0.000 N 
ATOM      2  N   UNL     1     -19.468  -4.124  64.711  0.00  0.00    +0.000 NA
ATOM      3  N   UNL     1     -18.194  -4.300  64.802  0.00  0.00    +0.000 NA
ATOM      4  N   UNL     1     -17.570  -3.245  64.421  0.00  0.00    +0.000 NA
ATOM      5  C   UNL     1     -18.421  -2.314  64.053  0.00  0.00    +0.000 A 
ATOM      6  N   UNL     1     -18.104  -1.045  63.585  0.00  0.00    +0.000 N 
ATOM      7  C   UNL     1     -16.814  -0.670  63.476  0.00  0.00    +0.000 C 
ATOM      8  O   UNL     1     -15.930  -1.441  63.785  0.00  0.00    +0.000 OA
ATOM      9  H   UNL     1     -18.812  -0.430  63.338  0.00  0.00    +0.000 HD
ENDROOT
BRANCH   1  10
ATOM     10  C   UNL     1     -20.940  -2.155  63.950  0.00  0.00    +0.000 C 
BRANCH  10  12
ATOM     11  C   UNL     1     -21.086  -0.946  61.769  0.00  0.00    +0.000 C 
ATOM     12  C   UNL     1     -21.281  -2.294  62.465  0.00  0.00    +0.000 C 
ENDBRANCH  10  12
ENDBRANCH   1  10
BRANCH   7  13
ATOM     13  C   UNL     1     -16.471   0.707  62.967  0.00  0.00    +0.000 C 
BRANCH  13  14
ATOM     14  O   UNL     1     -17.438   1.109  61.994  0.00  0.00    +0.000 OA
BRANCH  14  15
ATOM     15  C   UNL     1     -17.226   2.298  61.370  0.00  0.00    +0.000 A 
ATOM     16  C   UNL     1     -17.046   3.452  62.117  0.00  0.00    +0.000 A 
ATOM     17  C   UNL     1     -16.830   4.659  61.481  0.00  0.00    +0.000 A 
ATOM     18  C   UNL     1     -16.633   5.913  62.292  0.00  0.00    +0.000 C 
ATOM     19  C   UNL     1     -16.794   4.717  60.100  0.00  0.00    +0.000 A 
ATOM     20  C   UNL     1     -16.975   3.568  59.353  0.00  0.00    +0.000 A 
ATOM     21  C   UNL     1     -16.936   3.634  57.847  0.00  0.00    +0.000 C 
ATOM     22  C   UNL     1     -17.185   2.357  59.984  0.00  0.00    +0.000 A 
ENDBRANCH  14  15
ENDBRANCH  13  14
ENDBRANCH   7  13
TORSDOF 5
ENDMDL
MODEL 5
REMARK VINA RESULT:      -7.7      1.940      3.231
REMARK  Name = ZINC000000557335 1
REMARK  8 active torsions:
REMARK  status: ('A' for Active; 'I' for Inactive)
REMARK    1  A    between atoms: C_1  and  C_2
REMARK    2  A    between atoms: C_2  and  C_3
REMARK    3  A    between atoms: C_3  and  N_4
REMARK    4  A    between atoms: C_10  and  C_12
REMARK    5  A    between atoms: C_12  and  O_13
REMARK    6  A    between atoms: O_13  and  C_14
REMARK    7  A    between atoms: C_16  and  C_17
REMARK    8  A    between atoms: C_19  and  C_20
REMARK                            x       y       z     vdW  Elec       q    Type
REMARK                         _______ _______ _______ _____ _____    ______ ____
ROOT
ATOM      1  N   UNL     1     -20.158  -2.144  63.641  0.00  0.00    +0.000 N 
ATOM      2  N   UNL     1     -21.410  -2.537  63.135  0.00  0.00    +0.000 NA
ATOM      3  N   UNL     1     -21.651  -1.787  62.114  0.00  0.00    +0.000 NA
ATOM      4  N   UNL     1     -20.684  -0.963  61.927  0.00  0.00    +0.000 NA
ATOM      5  C   UNL     1     -19.750  -1.137  62.835  0.00  0.00    +0.000 A 
ATOM      6  N   UNL     1     -18.562  -0.426  62.941  0.00  0.00    +0.000 N 
ATOM      7  C   UNL     1     -18.279   0.550  62.057  0.00  0.00    +0.000 C 
ATOM      8  O   UNL     1     -19.063   0.809  61.168  0.00  0.00    +0.000 OA
ATOM      9  H   UNL     1     -17.935  -0.633  63.652  0.00  0.00    +0.000 HD
ENDROOT
BRANCH   1  10
ATOM     10  C   UNL     1     -19.452  -2.701  64.796  0.00  0.00    +0.000 C 
BRANCH  10  12
ATOM     11  C   UNL     1     -19.913  -5.156  64.801  0.00  0.00    +0.000 C 
ATOM     12  C   UNL     1     -18.891  -4.077  64.436  0.00  0.00    +0.000 C 
ENDBRANCH  10  12
ENDBRANCH   1  10
BRANCH   7  13
ATOM     13  C   UNL     1     -16.989   1.322  62.173  0.00  0.00    +0.000 C 
BRANCH  13  14
ATOM     14  O   UNL     1     -17.264   2.634  62.669  0.00  0.00    +0.000 OA
BRANCH  14  15
ATOM     15  C   UNL     1     -16.995   3.675  61.837  0.00  0.00    +0.000 A 
ATOM     16  C   UNL     1     -16.439   4.841  62.341  0.00  0.00    +0.000 A 
ATOM     17  C   UNL     1     -16.166   5.897  61.493  0.00  0.00    +0.000 A 
ATOM     18  C   UNL     1     -15.561   7.165  62.041  0.00  0.00    +0.000 C 
ATOM     19  C   UNL     1     -16.446   5.792  60.143  0.00  0.00    +0.000 A 
ATOM     20  C   UNL     1     -17.001   4.632  59.639  0.00  0.00    +0.000 A 
ATOM     21  C   UNL     1     -17.306   4.520  58.167  0.00  0.00    +0.000 C 
ATOM     22  C   UNL     1     -17.271   3.570  60.481  0.00  0.00    +0.000 A 
ENDBRANCH  14  15
ENDBRANCH  13  14
ENDBRANCH   7  13
TORSDOF 5
ENDMDL
MODEL 6
REMARK VINA RESULT:      -7.3      1.914      2.927
REMARK  Name = ZINC000000557335 1
REMARK  8 active torsions:
REMARK  status: ('A' for Active; 'I' for Inactive)
REMARK    1  A    between atoms: C_1  and  C_2
REMARK    2  A    between atoms: C_2  and  C_3
REMARK    3  A    between atoms: C_3  and  N_4
REMARK    4  A    between atoms: C_10  and  C_12
REMARK    5  A    between atoms: C_12  and  O_13
REMARK    6  A    between atoms: O_13  and  C_14
REMARK    7  A    between atoms: C_16  and  C_17
REMARK    8  A    between atoms: C_19  and  C_20
REMARK                            x       y       z     vdW  Elec       q    Type
REMARK                         _______ _______ _______ _____ _____    ______ ____
ROOT
ATOM      1  N   UNL     1     -19.646  -2.879  64.197  0.00  0.00    +0.000 N 
ATOM      2  N   UNL     1     -19.693  -4.264  64.432  0.00  0.00    +0.000 NA
ATOM      3  N   UNL     1     -18.472  -4.674  64.491  0.00  0.00    +0.000 NA
ATOM      4  N   UNL     1     -17.663  -3.692  64.316  0.00  0.00    +0.000 NA
ATOM      5  C   UNL     1     -18.330  -2.575  64.128  0.00  0.00    +0.000 A 
ATOM      6  N   UNL     1     -17.783  -1.317  63.907  0.00  0.00    +0.000 N 
ATOM      7  C   UNL     1     -16.446  -1.159  63.873  0.00  0.00    +0.000 C 
ATOM      8  O   UNL     1     -15.718  -2.116  64.034  0.00  0.00    +0.000 OA
ATOM      9  H   UNL     1     -18.366  -0.552  63.779  0.00  0.00    +0.000 HD
ENDROOT
BRANCH   1  10
ATOM     10  C   UNL     1     -20.779  -1.963  64.051  0.00  0.00    +0.000 C 
BRANCH  10  12
ATOM     11  C   UNL     1     -21.909  -2.048  61.825  0.00  0.00    +0.000 C 
ATOM     12  C   UNL     1     -20.791  -1.387  62.634  0.00  0.00    +0.000 C 
ENDBRANCH  10  12
ENDBRANCH   1  10
BRANCH   7  13
ATOM     13  C   UNL     1     -15.855   0.207  63.633  0.00  0.00    +0.000 C 
BRANCH  13  14
ATOM     14  O   UNL     1     -16.111   0.605  62.285  0.00  0.00    +0.000 OA
BRANCH  14  15
ATOM     15  C   UNL     1     -17.054   1.565  62.095  0.00  0.00    +0.000 A 
ATOM     16  C   UNL     1     -16.765   2.890  62.382  0.00  0.00    +0.000 A 
ATOM     17  C   UNL     1     -17.725   3.864  62.187  0.00  0.00    +0.000 A 
ATOM     18  C   UNL     1     -17.411   5.305  62.498  0.00  0.00    +0.000 C 
ATOM     19  C   UNL     1     -18.975   3.518  61.707  0.00  0.00    +0.000 A 
ATOM     20  C   UNL     1     -19.266   2.197  61.421  0.00  0.00    +0.000 A 
ATOM     21  C   UNL     1     -20.630   1.823  60.898  0.00  0.00    +0.000 C 
ATOM     22  C   UNL     1     -18.308   1.220  61.608  0.00  0.00    +0.000 A 
ENDBRANCH  14  15
ENDBRANCH  13  14
ENDBRANCH   7  13
TORSDOF 5
ENDMDL
MODEL 7
REMARK VINA RESULT:      -7.3      1.478      2.073
REMARK  Name = ZINC000000557335 1
REMARK  8 active torsions:
REMARK  status: ('A' for Active; 'I' for Inactive)
REMARK    1  A    between atoms: C_1  and  C_2
REMARK    2  A    between atoms: C_2  and  C_3
REMARK    3  A    between atoms: C_3  and  N_4
REMARK    4  A    between atoms: C_10  and  C_12
REMARK    5  A    between atoms: C_12  and  O_13
REMARK    6  A    between atoms: O_13  and  C_14
REMARK    7  A    between atoms: C_16  and  C_17
REMARK    8  A    between atoms: C_19  and  C_20
REMARK                            x       y       z     vdW  Elec       q    Type
REMARK                         _______ _______ _______ _____ _____    ______ ____
ROOT
ATOM      1  N   UNL     1     -18.262  -2.710  64.393  0.00  0.00    +0.000 N 
ATOM      2  N   UNL     1     -17.835  -4.047  64.485  0.00  0.00    +0.000 NA
ATOM      3  N   UNL     1     -16.609  -4.075  64.089  0.00  0.00    +0.000 NA
ATOM      4  N   UNL     1     -16.221  -2.897  63.756  0.00  0.00    +0.000 NA
ATOM      5  C   UNL     1     -17.194  -2.029  63.918  0.00  0.00    +0.000 A 
ATOM      6  N   UNL     1     -17.134  -0.666  63.659  0.00  0.00    +0.000 N 
ATOM      7  C   UNL     1     -15.994  -0.117  63.195  0.00  0.00    +0.000 C 
ATOM      8  O   UNL     1     -15.021  -0.814  63.003  0.00  0.00    +0.000 OA
ATOM      9  H   UNL     1     -17.914  -0.109  63.814  0.00  0.00    +0.000 HD
ENDROOT
BRANCH   1  10
ATOM     10  C   UNL     1     -19.581  -2.173  64.731  0.00  0.00    +0.000 C 
BRANCH  10  12
ATOM     11  C   UNL     1     -21.160  -1.604  62.881  0.00  0.00    +0.000 C 
ATOM     12  C   UNL     1     -20.624  -2.733  63.763  0.00  0.00    +0.000 C 
ENDBRANCH  10  12
ENDBRANCH   1  10
BRANCH   7  13
ATOM     13  C   UNL     1     -15.931   1.362  62.914  0.00  0.00    +0.000 C 
BRANCH  13  14
ATOM     14  O   UNL     1     -17.195   1.806  62.416  0.00  0.00    +0.000 OA
BRANCH  14  15
ATOM     15  C   UNL     1     -17.413   3.148  62.398  0.00  0.00    +0.000 A 
ATOM     16  C   UNL     1     -18.601   3.666  62.892  0.00  0.00    +0.000 A 
ATOM     17  C   UNL     1     -18.819   5.029  62.873  0.00  0.00    +0.000 A 
ATOM     18  C   UNL     1     -20.110   5.593  63.410  0.00  0.00    +0.000 C 
ATOM     19  C   UNL     1     -17.854   5.878  62.363  0.00  0.00    +0.000 A 
ATOM     20  C   UNL     1     -16.670   5.365  61.869  0.00  0.00    +0.000 A 
ATOM     21  C   UNL     1     -15.620   6.293  61.313  0.00  0.00    +0.000 C 
ATOM     22  C   UNL     1     -16.444   4.002  61.891  0.00  0.00    +0.000 A 
ENDBRANCH  14  15
ENDBRANCH  13  14
ENDBRANCH   7  13
TORSDOF 5
ENDMDL
MODEL 8
REMARK VINA RESULT:      -7.2      1.784      2.771
REMARK  Name = ZINC000000557335 1
REMARK  8 active torsions:
REMARK  status: ('A' for Active; 'I' for Inactive)
REMARK    1  A    between atoms: C_1  and  C_2
REMARK    2  A    between atoms: C_2  and  C_3
REMARK    3  A    between atoms: C_3  and  N_4
REMARK    4  A    between atoms: C_10  and  C_12
REMARK    5  A    between atoms: C_12  and  O_13
REMARK    6  A    between atoms: O_13  and  C_14
REMARK    7  A    between atoms: C_16  and  C_17
REMARK    8  A    between atoms: C_19  and  C_20
REMARK                            x       y       z     vdW  Elec       q    Type
REMARK                         _______ _______ _______ _____ _____    ______ ____
ROOT
ATOM      1  N   UNL     1     -17.603  -1.554  64.331  0.00  0.00    +0.000 N 
ATOM      2  N   UNL     1     -18.314  -2.673  64.801  0.00  0.00    +0.000 NA
ATOM      3  N   UNL     1     -19.419  -2.717  64.139  0.00  0.00    +0.000 NA
ATOM      4  N   UNL     1     -19.478  -1.743  63.304  0.00  0.00    +0.000 NA
ATOM      5  C   UNL     1     -18.396  -1.001  63.385  0.00  0.00    +0.000 A 
ATOM      6  N   UNL     1     -18.116   0.132  62.634  0.00  0.00    +0.000 N 
ATOM      7  C   UNL     1     -18.999   0.566  61.714  0.00  0.00    +0.000 C 
ATOM      8  O   UNL     1     -20.039  -0.033  61.542  0.00  0.00    +0.000 OA
ATOM      9  H   UNL     1     -17.283   0.611  62.772  0.00  0.00    +0.000 HD
ENDROOT
BRANCH   1  10
ATOM     10  C   UNL     1     -16.289  -1.085  64.776  0.00  0.00    +0.000 C 
BRANCH  10  12
ATOM     11  C   UNL     1     -14.602  -0.387  63.069  0.00  0.00    +0.000 C 
ATOM     12  C   UNL     1     -15.215  -1.581  63.804  0.00  0.00    +0.000 C 
ENDBRANCH  10  12
ENDBRANCH   1  10
BRANCH   7  13
ATOM     13  C   UNL     1     -18.694   1.798  60.899  0.00  0.00    +0.000 C 
BRANCH  13  14
ATOM     14  O   UNL     1     -17.595   2.496  61.487  0.00  0.00    +0.000 OA
BRANCH  14  15
ATOM     15  C   UNL     1     -17.212   3.656  60.890  0.00  0.00    +0.000 A 
ATOM     16  C   UNL     1     -17.282   3.785  59.512  0.00  0.00    +0.000 A 
ATOM     17  C   UNL     1     -16.894   4.965  58.908  0.00  0.00    +0.000 A 
ATOM     18  C   UNL     1     -16.971   5.105  57.409  0.00  0.00    +0.000 C 
ATOM     19  C   UNL     1     -16.435   6.018  59.678  0.00  0.00    +0.000 A 
ATOM     20  C   UNL     1     -16.363   5.892  61.052  0.00  0.00    +0.000 A 
ATOM     21  C   UNL     1     -15.861   7.042  61.889  0.00  0.00    +0.000 C 
ATOM     22  C   UNL     1     -16.756   4.716  61.662  0.00  0.00    +0.000 A 
ENDBRANCH  14  15
ENDBRANCH  13  14
ENDBRANCH   7  13
TORSDOF 5
ENDMDL
